<?xml version="1.0" encoding="UTF-8"?>

<!-- generated on Wed Oct 28 20:47:06 2015 by SUMO netconvert Version 0.19.0
<?xml version="1.0" encoding="UTF-8"?>

<configuration xmlns:xsi="http://www.w3.org/2001/XMLSchema-instance" xsi:noNamespaceSchemaLocation="http://sumo-sim.org/xsd/netconvertConfiguration.xsd">

    <input>
        <node-files value="hello.nod.xml"/>
        <edge-files value="hello.edg.xml"/>
        <connection-files value="hello.con.xml"/>
        <type-files value="hello.typ.xml"/>
    </input>

    <output>
        <output-file value="hello.net.xml"/>
    </output>

    <report>
        <verbose value="true"/>
    </report>

</configuration>
-->

<net version="0.13" xmlns:xsi="http://www.w3.org/2001/XMLSchema-instance" xsi:noNamespaceSchemaLocation="http://sumo-sim.org/xsd/net_file.xsd">

    <location netOffset="130.00,1100.00" convBoundary="0.00,0.00,470.00,1520.00" origBoundary="-130.00,-1100.00,340.00,420.00" projParameter="!"/>

    <edge id=":1_0" function="internal">
        <lane id=":1_0_0" index="0" speed="13.89" length="13.44" shape="125.35,1102.22 124.74,1098.28 124.41,1095.57 124.14,1092.86 123.70,1088.89"/>
    </edge>
    <edge id=":1_1" function="internal">
        <lane id=":1_1_0" index="0" speed="13.89" length="15.62" shape="125.35,1102.22 125.09,1097.21 126.23,1093.85 128.79,1092.15 132.77,1092.10"/>
    </edge>
    <edge id=":2_0" function="internal">
        <lane id=":2_0_0" index="0" speed="13.89" length="1.46" shape="191.36,1101.86 193.68,1102.62"/>
        <lane id=":2_0_1" index="1" speed="13.89" length="1.46" shape="190.82,1105.12 192.21,1105.57"/>
        <lane id=":2_0_2" index="2" speed="13.89" length="1.46" shape="190.28,1108.37 190.73,1108.52"/>
    </edge>

    <edge id="1to2" from="1" to="2" priority="2" type="c">
        <lane id="1to2_0" index="0" speed="13.89" length="59.41" shape="132.77,1092.10 191.36,1101.86"/>
        <lane id="1to2_1" index="1" speed="13.89" length="59.41" shape="132.22,1095.35 190.82,1105.12"/>
        <lane id="1to2_2" index="2" speed="13.89" length="59.41" shape="131.68,1098.61 190.28,1108.37"/>
    </edge>
    <edge id="1to5" from="1" to="5" priority="3" type="b">
        <lane id="1to5_0" index="0" speed="13.89" length="1095.88" shape="123.70,1088.89 -4.92,0.58"/>
        <lane id="1to5_1" index="1" speed="13.89" length="1095.88" shape="126.98,1088.50 -1.64,0.19"/>
    </edge>
    <edge id="4to1" from="4" to="1" priority="3" type="b">
        <lane id="4to1_0" index="0" speed="13.89" length="424.36" shape="195.12,1520.81 125.35,1102.22"/>
        <lane id="4to1_1" index="1" speed="13.89" length="424.36" shape="198.37,1520.27 128.61,1101.68"/>
    </edge>
    <edge id="out" from="2" to="3" priority="2" type="c">
        <lane id="out_0" index="0" speed="13.89" length="313.06" shape="193.68,1102.62 473.69,1242.62"/>
        <lane id="out_1" index="1" speed="13.89" length="313.06" shape="192.21,1105.57 472.21,1245.57"/>
        <lane id="out_2" index="2" speed="13.89" length="313.06" shape="190.73,1108.52 470.74,1248.52"/>
    </edge>

    <junction id="1" type="priority" x="130.00" y="1100.00" incLanes="4to1_0 4to1_1" intLanes=":1_0_0 :1_1_0" shape="123.77,1102.49 130.19,1101.42 131.42,1100.19 133.03,1090.52 128.57,1088.32 122.11,1089.08">
        <request index="0" response="00" foes="00" cont="0"/>
        <request index="1" response="00" foes="00" cont="0"/>
    </junction>
    <junction id="2" type="priority" x="190.00" y="1110.00" incLanes="1to2_0 1to2_1 1to2_2" intLanes=":2_0_0 :2_0_1 :2_0_2" shape="190.02,1109.95 194.40,1101.19 191.63,1100.29 190.02,1109.95">
        <request index="0" response="000" foes="000" cont="0"/>
        <request index="1" response="000" foes="000" cont="0"/>
        <request index="2" response="000" foes="000" cont="0"/>
    </junction>
    <junction id="3" type="unregulated" x="470.00" y="1250.00" incLanes="out_0 out_1 out_2" intLanes="" shape="474.41,1241.19 470.02,1249.96"/>
    <junction id="4" type="unregulated" x="200.00" y="1520.00" incLanes="" intLanes="" shape="199.95,1520.01 193.54,1521.08"/>
    <junction id="5" type="unregulated" x="0.00" y="0.00" incLanes="1to5_0 1to5_1" intLanes="" shape="-6.50,0.77 -0.05,0.01"/>

    <connection from="1to2" to="out" fromLane="0" toLane="0" via=":2_0_0" dir="s" state="M"/>
    <connection from="1to2" to="out" fromLane="1" toLane="1" via=":2_0_1" dir="s" state="M"/>
    <connection from="1to2" to="out" fromLane="2" toLane="2" via=":2_0_2" dir="s" state="M"/>
    <connection from="4to1" to="1to5" fromLane="0" toLane="0" via=":1_0_0" dir="s" state="M"/>
    <connection from="4to1" to="1to2" fromLane="0" toLane="0" via=":1_1_0" dir="l" state="M"/>

    <connection from=":1_0" to="1to5" fromLane="0" toLane="0" dir="s" state="M"/>
    <connection from=":1_1" to="1to2" fromLane="0" toLane="0" dir="s" state="M"/>
    <connection from=":2_0" to="out" fromLane="0" toLane="0" dir="s" state="M"/>
    <connection from=":2_0" to="out" fromLane="1" toLane="1" dir="s" state="M"/>
    <connection from=":2_0" to="out" fromLane="2" toLane="2" dir="s" state="M"/>

</net>
