<routes>
    <vType accel="1.0" decel="5.0" id="Car" length="5.0" maxSpeed="40.0" sigma="0.0" />
    <route id="route0" edges="4to1 1to2 out"/>
    <route id="route1" edges="4to1 1to5"/>
    <vehicle depart="1" id="veh0" route="route0" type="Car" />
    <vehicle depart="2" id="veh1" route="route1" type="Car" />
</routes>
