<?xml version="1.0" encoding="UTF-8"?>
<connections xmlns:xsi="http://www.w3.org/2001/XMLSchema-instance"
 xsi:noNamespaceSchemaLocation="http://sumo.sf.net/xsd/connections_file.xsd">
    <!-- Nelostietä etelään -->
    <connection from="4to1" to="1to5" fromLane="0" toLane="0"/>
    <!-- Kääntyminen pohjoisesta liimattalaan -->
    <connection from="4to1" to="1to2" fromLane="0" toLane="0"/>
</connections>
