<edges>
    <!-- Liimattalantie itään ja etelään -->
    <edge from="1" id="1to2" to="2" type="c" />
    <edge from="2" id="out" to="3"  type="c"/>
    <!-- Jyväskyläntie etelään -->
    <edge from="4" id="4to1" to="1" type="b"/>
    <edge from="1" id="1to5" to="5" type="b" />

</edges>
