<edges>
    <!-- Liimattalantie itään ja etelään -->
    <edge from="1" id="1to2" to="2" />
    <edge from="2" id="out" to="3" />
    <!-- Jyväskyläntie etelään -->
    <edge from="4" id="4to1" to="1" />
    <edge from="1" id="1to5" to="5" />

</edges>
