<?xml version="1.0" encoding="UTF-8"?>
<nodes xmlns:xsi="http://www.w3.org/2001/XMLSchema-instance" xsi:noNamespaceSchemaLocation="http://sumo.dlr.de/xsd/nodes_file.xsd">
<!- Taimelan risteys -->
    <node id="1" x="0.0" y="0.0" />
    <node id="2" x="+60.0" y="10.0" />
    <node id="3" x="+480.0" y="70.0" />
</nodes>
